# generated using pymatgen
data_Zn109Te107
_symmetry_space_group_name_H-M   'P 1'
_cell_length_a   18.55447800
_cell_length_b   18.55447800
_cell_length_c   18.55447800
_cell_angle_alpha   90.00000000
_cell_angle_beta   90.00000000
_cell_angle_gamma   90.00000000
_symmetry_Int_Tables_number   1
_chemical_formula_structural   Zn109Te107
_chemical_formula_sum   'Zn109 Te107'
_cell_volume   6387.72516400
_cell_formula_units_Z   1
loop_
 _symmetry_equiv_pos_site_id
 _symmetry_equiv_pos_as_xyz
  1  'x, y, z'
loop_
 _atom_site_type_symbol
 _atom_site_label
 _atom_site_symmetry_multiplicity
 _atom_site_fract_x
 _atom_site_fract_y
 _atom_site_fract_z
 _atom_site_occupancy
  Zn  Zn0  1  0.83334551  0.16663473  0.16663473  1
  Zn  Zn1  1  -0.00003598  0.33326034  0.16679880  1
  Zn  Zn2  1  -0.00003598  0.16679880  0.33326034  1
  Zn  Zn3  1  0.50017166  0.16665865  0.16665865  1
  Zn  Zn4  1  0.66671086  0.33315440  0.16662523  1
  Zn  Zn5  1  0.83332888  0.50003359  0.16680122  1
  Zn  Zn6  1  -0.00000743  0.66673085  0.16666373  1
  Zn  Zn7  1  0.66671086  0.16662523  0.33315440  1
  Zn  Zn8  1  0.83336506  0.33340299  0.33340299  1
  Zn  Zn9  1  -0.00003163  0.49992949  0.33340327  1
  Zn  Zn10  1  0.83332888  0.16680122  0.50003359  1
  Zn  Zn11  1  -0.00003163  0.33340327  0.49992949  1
  Zn  Zn12  1  -0.00000743  0.16666373  0.66673085  1
  Zn  Zn13  1  0.16673118  0.16673118  0.16673118  1
  Zn  Zn14  1  0.33322124  0.33322124  0.16641404  1
  Zn  Zn15  1  0.50005876  0.50005876  0.16635758  1
  Zn  Zn16  1  0.66670271  0.66670271  0.16673331  1
  Zn  Zn17  1  0.83328613  0.83328613  0.16669013  1
  Zn  Zn18  1  -0.00000467  -0.00000467  0.16663933  1
  Zn  Zn19  1  0.33322124  0.16641404  0.33322124  1
  Zn  Zn20  1  0.49905827  0.33426580  0.33426580  1
  Zn  Zn21  1  0.66699562  0.50005525  0.33324724  1
  Zn  Zn22  1  0.83330737  0.66661546  0.33324191  1
  Zn  Zn23  1  0.00001607  0.83329285  0.33321671  1
  Zn  Zn24  1  0.50005876  0.16635758  0.50005876  1
  Zn  Zn25  1  0.66699562  0.33324724  0.50005525  1
  Zn  Zn26  1  0.83336445  0.49992974  0.49992974  1
  Zn  Zn27  1  -0.00002554  0.66656359  0.50003812  1
  Zn  Zn28  1  0.66670271  0.16673331  0.66670271  1
  Zn  Zn29  1  0.83330737  0.33324191  0.66661546  1
  Zn  Zn30  1  -0.00002554  0.50003812  0.66656359  1
  Zn  Zn31  1  0.83328613  0.16669013  0.83328613  1
  Zn  Zn32  1  0.00001607  0.33321671  0.83329285  1
  Zn  Zn33  1  -0.00000467  0.16663933  -0.00000467  1
  Zn  Zn34  1  0.16665865  0.50017166  0.16665865  1
  Zn  Zn35  1  0.33315440  0.66671086  0.16662523  1
  Zn  Zn36  1  0.50003359  0.83332888  0.16680122  1
  Zn  Zn37  1  0.66673085  -0.00000743  0.16666373  1
  Zn  Zn38  1  0.16641404  0.33322124  0.33322124  1
  Zn  Zn39  1  0.33426580  0.49905827  0.33426580  1
  Zn  Zn40  1  0.50005525  0.66699562  0.33324724  1
  Zn  Zn41  1  0.66661546  0.83330737  0.33324191  1
  Zn  Zn42  1  0.83329285  0.00001607  0.33321671  1
  Zn  Zn43  1  0.16665865  0.16665865  0.50017166  1
  Zn  Zn44  1  0.33426580  0.33426580  0.49905827  1
  Zn  Zn45  1  0.49908242  0.49908242  0.49908242  1
  Zn  Zn46  1  0.66672833  0.66672833  0.50016419  1
  Zn  Zn47  1  0.83328955  0.83328955  0.50008678  1
  Zn  Zn48  1  0.00000936  0.00000936  0.50007810  1
  Zn  Zn49  1  0.33315440  0.16662523  0.66671086  1
  Zn  Zn50  1  0.50005525  0.33324724  0.66699562  1
  Zn  Zn51  1  0.66672833  0.50016419  0.66672833  1
  Zn  Zn52  1  0.83334144  0.66669833  0.66669833  1
  Zn  Zn53  1  -0.00001356  0.83330551  0.66672361  1
  Zn  Zn54  1  0.50003359  0.16680122  0.83332888  1
  Zn  Zn55  1  0.66661546  0.33324191  0.83330737  1
  Zn  Zn56  1  0.83328955  0.50008678  0.83328955  1
  Zn  Zn57  1  -0.00001356  0.66672361  0.83330551  1
  Zn  Zn58  1  0.66673085  0.16666373  -0.00000743  1
  Zn  Zn59  1  0.83329285  0.33321671  0.00001607  1
  Zn  Zn60  1  0.00000936  0.50007810  0.00000936  1
  Zn  Zn61  1  0.16663473  0.83334551  0.16663473  1
  Zn  Zn62  1  0.33326034  -0.00003598  0.16679880  1
  Zn  Zn63  1  0.16662523  0.66671086  0.33315440  1
  Zn  Zn64  1  0.33340299  0.83336506  0.33340299  1
  Zn  Zn65  1  0.49992949  -0.00003163  0.33340327  1
  Zn  Zn66  1  0.16635758  0.50005876  0.50005876  1
  Zn  Zn67  1  0.33324724  0.66699562  0.50005525  1
  Zn  Zn68  1  0.49992974  0.83336445  0.49992974  1
  Zn  Zn69  1  0.66656359  -0.00002554  0.50003812  1
  Zn  Zn70  1  0.16662523  0.33315440  0.66671086  1
  Zn  Zn71  1  0.33324724  0.50005525  0.66699562  1
  Zn  Zn72  1  0.50016419  0.66672833  0.66672833  1
  Zn  Zn73  1  0.66669833  0.83334144  0.66669833  1
  Zn  Zn74  1  0.83330551  -0.00001356  0.66672361  1
  Zn  Zn75  1  0.16663473  0.16663473  0.83334551  1
  Zn  Zn76  1  0.33340299  0.33340299  0.83336506  1
  Zn  Zn77  1  0.49992974  0.49992974  0.83336445  1
  Zn  Zn78  1  0.66669833  0.66669833  0.83334144  1
  Zn  Zn79  1  0.83334373  0.83334373  0.83334373  1
  Zn  Zn80  1  -0.00001240  -0.00001240  0.83334493  1
  Zn  Zn81  1  0.33326034  0.16679880  -0.00003598  1
  Zn  Zn82  1  0.49992949  0.33340327  -0.00003163  1
  Zn  Zn83  1  0.66656359  0.50003812  -0.00002554  1
  Zn  Zn84  1  0.83330551  0.66672361  -0.00001356  1
  Zn  Zn85  1  -0.00001240  0.83334493  -0.00001240  1
  Zn  Zn86  1  0.16679880  -0.00003598  0.33326034  1
  Zn  Zn87  1  0.16680122  0.83332888  0.50003359  1
  Zn  Zn88  1  0.33340327  -0.00003163  0.49992949  1
  Zn  Zn89  1  0.16673331  0.66670271  0.66670271  1
  Zn  Zn90  1  0.33324191  0.83330737  0.66661546  1
  Zn  Zn91  1  0.50003812  -0.00002554  0.66656359  1
  Zn  Zn92  1  0.16680122  0.50003359  0.83332888  1
  Zn  Zn93  1  0.33324191  0.66661546  0.83330737  1
  Zn  Zn94  1  0.50008678  0.83328955  0.83328955  1
  Zn  Zn95  1  0.66672361  -0.00001356  0.83330551  1
  Zn  Zn96  1  0.16679880  0.33326034  -0.00003598  1
  Zn  Zn97  1  0.33340327  0.49992949  -0.00003163  1
  Zn  Zn98  1  0.50003812  0.66656359  -0.00002554  1
  Zn  Zn99  1  0.66672361  0.83330551  -0.00001356  1
  Zn  Zn100  1  0.83334493  -0.00001240  -0.00001240  1
  Zn  Zn101  1  0.16666373  -0.00000743  0.66673085  1
  Zn  Zn102  1  0.16669013  0.83328613  0.83328613  1
  Zn  Zn103  1  0.33321671  0.00001607  0.83329285  1
  Zn  Zn104  1  0.16666373  0.66673085  -0.00000743  1
  Zn  Zn105  1  0.33321671  0.83329285  0.00001607  1
  Zn  Zn106  1  0.50007810  0.00000936  0.00000936  1
  Zn  Zn107  1  0.16663933  -0.00000467  -0.00000467  1
  Zn  Zn108  1  0.41670939  0.41670939  0.41670939  1
  Te  Te109  1  0.74992419  0.08333925  0.08333925  1
  Te  Te110  1  0.91669290  0.25007262  0.08332814  1
  Te  Te111  1  0.91669290  0.08332814  0.25007262  1
  Te  Te112  1  0.41648001  0.08336277  0.08336277  1
  Te  Te113  1  0.58323456  0.25008056  0.08334174  1
  Te  Te114  1  0.75000605  0.41683875  0.08331517  1
  Te  Te115  1  0.91661450  0.58337413  0.08342046  1
  Te  Te116  1  0.58323456  0.08334174  0.25008056  1
  Te  Te117  1  0.75004940  0.25003260  0.25003260  1
  Te  Te118  1  0.91669944  0.41669882  0.24998600  1
  Te  Te119  1  0.75000605  0.08331517  0.41683875  1
  Te  Te120  1  0.91669944  0.24998600  0.41669882  1
  Te  Te121  1  0.91661450  0.08342046  0.58337413  1
  Te  Te122  1  0.08337723  0.08337723  0.08337723  1
  Te  Te123  1  0.24996032  0.24996032  0.08325076  1
  Te  Te124  1  0.41663542  0.41663542  0.08335643  1
  Te  Te125  1  0.58339191  0.58339191  0.08333749  1
  Te  Te126  1  0.74999941  0.74999941  0.08332554  1
  Te  Te127  1  0.91661962  0.91661962  0.08336608  1
  Te  Te128  1  0.24996032  0.08325076  0.24996032  1
  Te  Te129  1  0.41631703  0.25036659  0.25036659  1
  Te  Te130  1  0.58299741  0.41710910  0.25037490  1
  Te  Te131  1  0.75006460  0.58335302  0.24996503  1
  Te  Te132  1  0.91667449  0.74998480  0.24999283  1
  Te  Te133  1  0.41663542  0.08335643  0.41663542  1
  Te  Te134  1  0.58299741  0.25037490  0.41710910  1
  Te  Te135  1  0.74996178  0.41669095  0.41669095  1
  Te  Te136  1  0.91661974  0.58338066  0.41661936  1
  Te  Te137  1  0.58339191  0.08333749  0.58339191  1
  Te  Te138  1  0.75006460  0.24996503  0.58335302  1
  Te  Te139  1  0.91661974  0.41661936  0.58338066  1
  Te  Te140  1  0.74999941  0.08332554  0.74999941  1
  Te  Te141  1  0.91667449  0.24999283  0.74998480  1
  Te  Te142  1  0.91661962  0.08336608  0.91661962  1
  Te  Te143  1  0.08336277  0.41648001  0.08336277  1
  Te  Te144  1  0.25008056  0.58323456  0.08334174  1
  Te  Te145  1  0.41683875  0.75000605  0.08331517  1
  Te  Te146  1  0.58337413  0.91661450  0.08342046  1
  Te  Te147  1  0.08325076  0.24996032  0.24996032  1
  Te  Te148  1  0.25036659  0.41631703  0.25036659  1
  Te  Te149  1  0.41710910  0.58299741  0.25037490  1
  Te  Te150  1  0.58335302  0.75006460  0.24996503  1
  Te  Te151  1  0.74998480  0.91667449  0.24999283  1
  Te  Te152  1  0.08336277  0.08336277  0.41648001  1
  Te  Te153  1  0.25036659  0.25036659  0.41631703  1
  Te  Te154  1  0.58299874  0.58299874  0.41609528  1
  Te  Te155  1  0.75000677  0.75000677  0.41654723  1
  Te  Te156  1  0.91660244  0.91660244  0.41660236  1
  Te  Te157  1  0.25008056  0.08334174  0.58323456  1
  Te  Te158  1  0.41710910  0.25037490  0.58299741  1
  Te  Te159  1  0.58299874  0.41609528  0.58299874  1
  Te  Te160  1  0.74995819  0.58324293  0.58324293  1
  Te  Te161  1  0.91667986  0.74997966  0.58325361  1
  Te  Te162  1  0.41683875  0.08331517  0.75000605  1
  Te  Te163  1  0.58335302  0.24996503  0.75006460  1
  Te  Te164  1  0.75000677  0.41654723  0.75000677  1
  Te  Te165  1  0.91667986  0.58325361  0.74997966  1
  Te  Te166  1  0.58337413  0.08342046  0.91661450  1
  Te  Te167  1  0.74998480  0.24999283  0.91667449  1
  Te  Te168  1  0.91660244  0.41660236  0.91660244  1
  Te  Te169  1  0.08333925  0.74992419  0.08333925  1
  Te  Te170  1  0.25007262  0.91669290  0.08332814  1
  Te  Te171  1  0.08334174  0.58323456  0.25008056  1
  Te  Te172  1  0.25003260  0.75004940  0.25003260  1
  Te  Te173  1  0.41669882  0.91669944  0.24998600  1
  Te  Te174  1  0.08335643  0.41663542  0.41663542  1
  Te  Te175  1  0.25037490  0.58299741  0.41710910  1
  Te  Te176  1  0.41669095  0.74996178  0.41669095  1
  Te  Te177  1  0.58338066  0.91661974  0.41661936  1
  Te  Te178  1  0.08334174  0.25008056  0.58323456  1
  Te  Te179  1  0.25037490  0.41710910  0.58299741  1
  Te  Te180  1  0.41609528  0.58299874  0.58299874  1
  Te  Te181  1  0.58324293  0.74995819  0.58324293  1
  Te  Te182  1  0.74997966  0.91667986  0.58325361  1
  Te  Te183  1  0.08333925  0.08333925  0.74992419  1
  Te  Te184  1  0.25003260  0.25003260  0.75004940  1
  Te  Te185  1  0.41669095  0.41669095  0.74996178  1
  Te  Te186  1  0.58324293  0.58324293  0.74995819  1
  Te  Te187  1  0.75000484  0.75000484  0.75000484  1
  Te  Te188  1  0.91671132  0.91671132  0.74996659  1
  Te  Te189  1  0.25007262  0.08332814  0.91669290  1
  Te  Te190  1  0.41669882  0.24998600  0.91669944  1
  Te  Te191  1  0.58338066  0.41661936  0.91661974  1
  Te  Te192  1  0.74997966  0.58325361  0.91667986  1
  Te  Te193  1  0.91671132  0.74996659  0.91671132  1
  Te  Te194  1  0.08332814  0.91669290  0.25007262  1
  Te  Te195  1  0.08331517  0.75000605  0.41683875  1
  Te  Te196  1  0.24998600  0.91669944  0.41669882  1
  Te  Te197  1  0.08333749  0.58339191  0.58339191  1
  Te  Te198  1  0.24996503  0.75006460  0.58335302  1
  Te  Te199  1  0.41661936  0.91661974  0.58338066  1
  Te  Te200  1  0.08331517  0.41683875  0.75000605  1
  Te  Te201  1  0.24996503  0.58335302  0.75006460  1
  Te  Te202  1  0.41654723  0.75000677  0.75000677  1
  Te  Te203  1  0.58325361  0.91667986  0.74997966  1
  Te  Te204  1  0.08332814  0.25007262  0.91669290  1
  Te  Te205  1  0.24998600  0.41669882  0.91669944  1
  Te  Te206  1  0.41661936  0.58338066  0.91661974  1
  Te  Te207  1  0.58325361  0.74997966  0.91667986  1
  Te  Te208  1  0.74996659  0.91671132  0.91671132  1
  Te  Te209  1  0.08342046  0.91661450  0.58337413  1
  Te  Te210  1  0.08332554  0.74999941  0.74999941  1
  Te  Te211  1  0.24999283  0.91667449  0.74998480  1
  Te  Te212  1  0.08342046  0.58337413  0.91661450  1
  Te  Te213  1  0.24999283  0.74998480  0.91667449  1
  Te  Te214  1  0.41660236  0.91660244  0.91660244  1
  Te  Te215  1  0.08336608  0.91661962  0.91661962  1
