# generated using pymatgen
data_Zn109Te107
_symmetry_space_group_name_H-M   'P 1'
_cell_length_a   18.55447800
_cell_length_b   18.55447800
_cell_length_c   18.55447800
_cell_angle_alpha   90.00000000
_cell_angle_beta   90.00000000
_cell_angle_gamma   90.00000000
_symmetry_Int_Tables_number   1
_chemical_formula_structural   Zn109Te107
_chemical_formula_sum   'Zn109 Te107'
_cell_volume   6387.72516400
_cell_formula_units_Z   1
loop_
 _symmetry_equiv_pos_site_id
 _symmetry_equiv_pos_as_xyz
  1  'x, y, z'
loop_
 _atom_site_type_symbol
 _atom_site_label
 _atom_site_symmetry_multiplicity
 _atom_site_fract_x
 _atom_site_fract_y
 _atom_site_fract_z
 _atom_site_occupancy
  Zn  Zn0  1  0.83333300  0.16666700  0.16666700  1
  Zn  Zn1  1  0.00000000  0.33333300  0.16666700  1
  Zn  Zn2  1  0.00000000  0.16666700  0.33333300  1
  Zn  Zn3  1  0.50000000  0.16666700  0.16666700  1
  Zn  Zn4  1  0.66666700  0.33333300  0.16666700  1
  Zn  Zn5  1  0.83333300  0.50000000  0.16666700  1
  Zn  Zn6  1  0.00000000  0.66666700  0.16666700  1
  Zn  Zn7  1  0.66666700  0.16666700  0.33333300  1
  Zn  Zn8  1  0.83333300  0.33333300  0.33333300  1
  Zn  Zn9  1  0.00000000  0.50000000  0.33333300  1
  Zn  Zn10  1  0.83333300  0.16666700  0.50000000  1
  Zn  Zn11  1  0.00000000  0.33333300  0.50000000  1
  Zn  Zn12  1  0.00000000  0.16666700  0.66666700  1
  Zn  Zn13  1  0.16666700  0.16666700  0.16666700  1
  Zn  Zn14  1  0.33333300  0.33333300  0.16666700  1
  Zn  Zn15  1  0.50000000  0.50000000  0.16666700  1
  Zn  Zn16  1  0.66666700  0.66666700  0.16666700  1
  Zn  Zn17  1  0.83333300  0.83333300  0.16666700  1
  Zn  Zn18  1  0.00000000  0.00000000  0.16666700  1
  Zn  Zn19  1  0.33333300  0.16666700  0.33333300  1
  Zn  Zn20  1  0.50000000  0.33333300  0.33333300  1
  Zn  Zn21  1  0.66666700  0.50000000  0.33333300  1
  Zn  Zn22  1  0.83333300  0.66666700  0.33333300  1
  Zn  Zn23  1  0.00000000  0.83333300  0.33333300  1
  Zn  Zn24  1  0.50000000  0.16666700  0.50000000  1
  Zn  Zn25  1  0.66666700  0.33333300  0.50000000  1
  Zn  Zn26  1  0.83333300  0.50000000  0.50000000  1
  Zn  Zn27  1  0.00000000  0.66666700  0.50000000  1
  Zn  Zn28  1  0.66666700  0.16666700  0.66666700  1
  Zn  Zn29  1  0.83333300  0.33333300  0.66666700  1
  Zn  Zn30  1  0.00000000  0.50000000  0.66666700  1
  Zn  Zn31  1  0.83333300  0.16666700  0.83333300  1
  Zn  Zn32  1  0.00000000  0.33333300  0.83333300  1
  Zn  Zn33  1  0.00000000  0.16666700  0.00000000  1
  Zn  Zn34  1  0.16666700  0.50000000  0.16666700  1
  Zn  Zn35  1  0.33333300  0.66666700  0.16666700  1
  Zn  Zn36  1  0.50000000  0.83333300  0.16666700  1
  Zn  Zn37  1  0.66666700  0.00000000  0.16666700  1
  Zn  Zn38  1  0.16666700  0.33333300  0.33333300  1
  Zn  Zn39  1  0.33333300  0.50000000  0.33333300  1
  Zn  Zn40  1  0.50000000  0.66666700  0.33333300  1
  Zn  Zn41  1  0.66666700  0.83333300  0.33333300  1
  Zn  Zn42  1  0.83333300  0.00000000  0.33333300  1
  Zn  Zn43  1  0.16666700  0.16666700  0.50000000  1
  Zn  Zn44  1  0.33333300  0.33333300  0.50000000  1
  Zn  Zn45  1  0.50000000  0.50000000  0.50000000  1
  Zn  Zn46  1  0.66666700  0.66666700  0.50000000  1
  Zn  Zn47  1  0.83333300  0.83333300  0.50000000  1
  Zn  Zn48  1  0.00000000  0.00000000  0.50000000  1
  Zn  Zn49  1  0.33333300  0.16666700  0.66666700  1
  Zn  Zn50  1  0.50000000  0.33333300  0.66666700  1
  Zn  Zn51  1  0.66666700  0.50000000  0.66666700  1
  Zn  Zn52  1  0.83333300  0.66666700  0.66666700  1
  Zn  Zn53  1  0.00000000  0.83333300  0.66666700  1
  Zn  Zn54  1  0.50000000  0.16666700  0.83333300  1
  Zn  Zn55  1  0.66666700  0.33333300  0.83333300  1
  Zn  Zn56  1  0.83333300  0.50000000  0.83333300  1
  Zn  Zn57  1  0.00000000  0.66666700  0.83333300  1
  Zn  Zn58  1  0.66666700  0.16666700  0.00000000  1
  Zn  Zn59  1  0.83333300  0.33333300  0.00000000  1
  Zn  Zn60  1  0.00000000  0.50000000  0.00000000  1
  Zn  Zn61  1  0.16666700  0.83333300  0.16666700  1
  Zn  Zn62  1  0.33333300  0.00000000  0.16666700  1
  Zn  Zn63  1  0.16666700  0.66666700  0.33333300  1
  Zn  Zn64  1  0.33333300  0.83333300  0.33333300  1
  Zn  Zn65  1  0.50000000  0.00000000  0.33333300  1
  Zn  Zn66  1  0.16666700  0.50000000  0.50000000  1
  Zn  Zn67  1  0.33333300  0.66666700  0.50000000  1
  Zn  Zn68  1  0.50000000  0.83333300  0.50000000  1
  Zn  Zn69  1  0.66666700  0.00000000  0.50000000  1
  Zn  Zn70  1  0.16666700  0.33333300  0.66666700  1
  Zn  Zn71  1  0.33333300  0.50000000  0.66666700  1
  Zn  Zn72  1  0.50000000  0.66666700  0.66666700  1
  Zn  Zn73  1  0.66666700  0.83333300  0.66666700  1
  Zn  Zn74  1  0.83333300  0.00000000  0.66666700  1
  Zn  Zn75  1  0.16666700  0.16666700  0.83333300  1
  Zn  Zn76  1  0.33333300  0.33333300  0.83333300  1
  Zn  Zn77  1  0.50000000  0.50000000  0.83333300  1
  Zn  Zn78  1  0.66666700  0.66666700  0.83333300  1
  Zn  Zn79  1  0.83333300  0.83333300  0.83333300  1
  Zn  Zn80  1  0.00000000  0.00000000  0.83333300  1
  Zn  Zn81  1  0.33333300  0.16666700  0.00000000  1
  Zn  Zn82  1  0.50000000  0.33333300  0.00000000  1
  Zn  Zn83  1  0.66666700  0.50000000  0.00000000  1
  Zn  Zn84  1  0.83333300  0.66666700  0.00000000  1
  Zn  Zn85  1  0.00000000  0.83333300  0.00000000  1
  Zn  Zn86  1  0.16666700  0.00000000  0.33333300  1
  Zn  Zn87  1  0.16666700  0.83333300  0.50000000  1
  Zn  Zn88  1  0.33333300  0.00000000  0.50000000  1
  Zn  Zn89  1  0.16666700  0.66666700  0.66666700  1
  Zn  Zn90  1  0.33333300  0.83333300  0.66666700  1
  Zn  Zn91  1  0.50000000  0.00000000  0.66666700  1
  Zn  Zn92  1  0.16666700  0.50000000  0.83333300  1
  Zn  Zn93  1  0.33333300  0.66666700  0.83333300  1
  Zn  Zn94  1  0.50000000  0.83333300  0.83333300  1
  Zn  Zn95  1  0.66666700  0.00000000  0.83333300  1
  Zn  Zn96  1  0.16666700  0.33333300  0.00000000  1
  Zn  Zn97  1  0.33333300  0.50000000  0.00000000  1
  Zn  Zn98  1  0.50000000  0.66666700  0.00000000  1
  Zn  Zn99  1  0.66666700  0.83333300  0.00000000  1
  Zn  Zn100  1  0.83333300  0.00000000  0.00000000  1
  Zn  Zn101  1  0.16666700  0.00000000  0.66666700  1
  Zn  Zn102  1  0.16666700  0.83333300  0.83333300  1
  Zn  Zn103  1  0.33333300  0.00000000  0.83333300  1
  Zn  Zn104  1  0.16666700  0.66666700  0.00000000  1
  Zn  Zn105  1  0.33333300  0.83333300  0.00000000  1
  Zn  Zn106  1  0.50000000  0.00000000  0.00000000  1
  Zn  Zn107  1  0.16666700  0.00000000  0.00000000  1
  Zn  Zn108  1  0.41666700  0.41666700  0.41666700  1
  Te  Te109  1  0.75000000  0.08333300  0.08333300  1
  Te  Te110  1  0.91666700  0.25000000  0.08333300  1
  Te  Te111  1  0.91666700  0.08333300  0.25000000  1
  Te  Te112  1  0.41666700  0.08333300  0.08333300  1
  Te  Te113  1  0.58333300  0.25000000  0.08333300  1
  Te  Te114  1  0.75000000  0.41666700  0.08333300  1
  Te  Te115  1  0.91666700  0.58333300  0.08333300  1
  Te  Te116  1  0.58333300  0.08333300  0.25000000  1
  Te  Te117  1  0.75000000  0.25000000  0.25000000  1
  Te  Te118  1  0.91666700  0.41666700  0.25000000  1
  Te  Te119  1  0.75000000  0.08333300  0.41666700  1
  Te  Te120  1  0.91666700  0.25000000  0.41666700  1
  Te  Te121  1  0.91666700  0.08333300  0.58333300  1
  Te  Te122  1  0.08333300  0.08333300  0.08333300  1
  Te  Te123  1  0.25000000  0.25000000  0.08333300  1
  Te  Te124  1  0.41666700  0.41666700  0.08333300  1
  Te  Te125  1  0.58333300  0.58333300  0.08333300  1
  Te  Te126  1  0.75000000  0.75000000  0.08333300  1
  Te  Te127  1  0.91666700  0.91666700  0.08333300  1
  Te  Te128  1  0.25000000  0.08333300  0.25000000  1
  Te  Te129  1  0.41666700  0.25000000  0.25000000  1
  Te  Te130  1  0.58333300  0.41666700  0.25000000  1
  Te  Te131  1  0.75000000  0.58333300  0.25000000  1
  Te  Te132  1  0.91666700  0.75000000  0.25000000  1
  Te  Te133  1  0.41666700  0.08333300  0.41666700  1
  Te  Te134  1  0.58333300  0.25000000  0.41666700  1
  Te  Te135  1  0.75000000  0.41666700  0.41666700  1
  Te  Te136  1  0.91666700  0.58333300  0.41666700  1
  Te  Te137  1  0.58333300  0.08333300  0.58333300  1
  Te  Te138  1  0.75000000  0.25000000  0.58333300  1
  Te  Te139  1  0.91666700  0.41666700  0.58333300  1
  Te  Te140  1  0.75000000  0.08333300  0.75000000  1
  Te  Te141  1  0.91666700  0.25000000  0.75000000  1
  Te  Te142  1  0.91666700  0.08333300  0.91666700  1
  Te  Te143  1  0.08333300  0.41666700  0.08333300  1
  Te  Te144  1  0.25000000  0.58333300  0.08333300  1
  Te  Te145  1  0.41666700  0.75000000  0.08333300  1
  Te  Te146  1  0.58333300  0.91666700  0.08333300  1
  Te  Te147  1  0.08333300  0.25000000  0.25000000  1
  Te  Te148  1  0.25000000  0.41666700  0.25000000  1
  Te  Te149  1  0.41666700  0.58333300  0.25000000  1
  Te  Te150  1  0.58333300  0.75000000  0.25000000  1
  Te  Te151  1  0.75000000  0.91666700  0.25000000  1
  Te  Te152  1  0.08333300  0.08333300  0.41666700  1
  Te  Te153  1  0.25000000  0.25000000  0.41666700  1
  Te  Te154  1  0.58333300  0.58333300  0.41666700  1
  Te  Te155  1  0.75000000  0.75000000  0.41666700  1
  Te  Te156  1  0.91666700  0.91666700  0.41666700  1
  Te  Te157  1  0.25000000  0.08333300  0.58333300  1
  Te  Te158  1  0.41666700  0.25000000  0.58333300  1
  Te  Te159  1  0.58333300  0.41666700  0.58333300  1
  Te  Te160  1  0.75000000  0.58333300  0.58333300  1
  Te  Te161  1  0.91666700  0.75000000  0.58333300  1
  Te  Te162  1  0.41666700  0.08333300  0.75000000  1
  Te  Te163  1  0.58333300  0.25000000  0.75000000  1
  Te  Te164  1  0.75000000  0.41666700  0.75000000  1
  Te  Te165  1  0.91666700  0.58333300  0.75000000  1
  Te  Te166  1  0.58333300  0.08333300  0.91666700  1
  Te  Te167  1  0.75000000  0.25000000  0.91666700  1
  Te  Te168  1  0.91666700  0.41666700  0.91666700  1
  Te  Te169  1  0.08333300  0.75000000  0.08333300  1
  Te  Te170  1  0.25000000  0.91666700  0.08333300  1
  Te  Te171  1  0.08333300  0.58333300  0.25000000  1
  Te  Te172  1  0.25000000  0.75000000  0.25000000  1
  Te  Te173  1  0.41666700  0.91666700  0.25000000  1
  Te  Te174  1  0.08333300  0.41666700  0.41666700  1
  Te  Te175  1  0.25000000  0.58333300  0.41666700  1
  Te  Te176  1  0.41666700  0.75000000  0.41666700  1
  Te  Te177  1  0.58333300  0.91666700  0.41666700  1
  Te  Te178  1  0.08333300  0.25000000  0.58333300  1
  Te  Te179  1  0.25000000  0.41666700  0.58333300  1
  Te  Te180  1  0.41666700  0.58333300  0.58333300  1
  Te  Te181  1  0.58333300  0.75000000  0.58333300  1
  Te  Te182  1  0.75000000  0.91666700  0.58333300  1
  Te  Te183  1  0.08333300  0.08333300  0.75000000  1
  Te  Te184  1  0.25000000  0.25000000  0.75000000  1
  Te  Te185  1  0.41666700  0.41666700  0.75000000  1
  Te  Te186  1  0.58333300  0.58333300  0.75000000  1
  Te  Te187  1  0.75000000  0.75000000  0.75000000  1
  Te  Te188  1  0.91666700  0.91666700  0.75000000  1
  Te  Te189  1  0.25000000  0.08333300  0.91666700  1
  Te  Te190  1  0.41666700  0.25000000  0.91666700  1
  Te  Te191  1  0.58333300  0.41666700  0.91666700  1
  Te  Te192  1  0.75000000  0.58333300  0.91666700  1
  Te  Te193  1  0.91666700  0.75000000  0.91666700  1
  Te  Te194  1  0.08333300  0.91666700  0.25000000  1
  Te  Te195  1  0.08333300  0.75000000  0.41666700  1
  Te  Te196  1  0.25000000  0.91666700  0.41666700  1
  Te  Te197  1  0.08333300  0.58333300  0.58333300  1
  Te  Te198  1  0.25000000  0.75000000  0.58333300  1
  Te  Te199  1  0.41666700  0.91666700  0.58333300  1
  Te  Te200  1  0.08333300  0.41666700  0.75000000  1
  Te  Te201  1  0.25000000  0.58333300  0.75000000  1
  Te  Te202  1  0.41666700  0.75000000  0.75000000  1
  Te  Te203  1  0.58333300  0.91666700  0.75000000  1
  Te  Te204  1  0.08333300  0.25000000  0.91666700  1
  Te  Te205  1  0.25000000  0.41666700  0.91666700  1
  Te  Te206  1  0.41666700  0.58333300  0.91666700  1
  Te  Te207  1  0.58333300  0.75000000  0.91666700  1
  Te  Te208  1  0.75000000  0.91666700  0.91666700  1
  Te  Te209  1  0.08333300  0.91666700  0.58333300  1
  Te  Te210  1  0.08333300  0.75000000  0.75000000  1
  Te  Te211  1  0.25000000  0.91666700  0.75000000  1
  Te  Te212  1  0.08333300  0.58333300  0.91666700  1
  Te  Te213  1  0.25000000  0.75000000  0.91666700  1
  Te  Te214  1  0.41666700  0.91666700  0.91666700  1
  Te  Te215  1  0.08333300  0.91666700  0.91666700  1
